*Heading
 test
** Job name: Job-1 Model name: Model-1
** Generated by: Abaqus/CAE 2023
*Preprint, echo=NO, model=NO, history=NO, contact=NO
**
** PARTS
**
*Part, name=Part-1
*Node
      1,          -4.,          -4.,          10.
      2,          -4.,          -3.,          10.
      3,          -4.,          -2.,          10.
      4,          -4.,          -1.,          10.
      5,          -4.,           0.,          10.
      6,          -4.,           1.,          10.
      7,          -4.,           2.,          10.
      8,          -4.,           3.,          10.
      9,          -4.,           4.,          10.
     10,          -4.,          -4.,           9.
     11,          -4.,          -3.,           9.
     12,          -4.,          -2.,           9.
     13,          -4.,          -1.,           9.
     14,          -4.,           0.,           9.
     15,          -4.,           1.,           9.
     16,          -4.,           2.,           9.
     17,          -4.,           3.,           9.
     18,          -4.,           4.,           9.
     19,          -4.,          -4.,           8.
     20,          -4.,          -3.,           8.
** ... 871 like lines cut
*Element, type=C3D8R
  1, 100, 101, 110, 109,   1,   2,  11,  10
  2, 101, 102, 111, 110,   2,   3,  12,  11
  3, 102, 103, 112, 111,   3,   4,  13,  12
  4, 103, 104, 113, 112,   4,   5,  14,  13
  5, 104, 105, 114, 113,   5,   6,  15,  14
  6, 105, 106, 115, 114,   6,   7,  16,  15
  7, 106, 107, 116, 115,   7,   8,  17,  16
  8, 107, 108, 117, 116,   8,   9,  18,  17
  9, 109, 110, 119, 118,  10,  11,  20,  19
 10, 110, 111, 120, 119,  11,  12,  21,  20
 11, 111, 112, 121, 120,  12,  13,  22,  21
 12, 112, 113, 122, 121,  13,  14,  23,  22
 13, 113, 114, 123, 122,  14,  15,  24,  23
 14, 114, 115, 124, 123,  15,  16,  25,  24
 15, 115, 116, 125, 124,  16,  17,  26,  25
 16, 116, 117, 126, 125,  17,  18,  27,  26
 17, 118, 119, 128, 127,  19,  20,  29,  28
 18, 119, 120, 129, 128,  20,  21,  30,  29
 19, 120, 121, 130, 129,  21,  22,  31,  30
 20, 121, 122, 131, 130,  22,  23,  32,  31
** ... 620 like lines cut
*End Part
**  
**
** ASSEMBLY
**
*Assembly, name=Assembly
**  
*Instance, name=Part-1-1, part=Part-1
*End Instance
**  
*End Assembly
** 
** MATERIALS
** 
*Material, name=Material-1
*Elastic
10., 0.49
